!-Generator IDFEditor 1.51
!-Option SortedOrder

!-NOTE: All comments with '!-' are ignored by the IDFEditor and are generated automatically.
!-      Use '!' comments if they need to be retained when using the IDFEditor.


!-   ===========  ALL OBJECTS IN CLASS: VERSION ===========

Version,
    9.3;                     !- Version Identifier


!-   ===========  ALL OBJECTS IN CLASS: SIMULATIONCONTROL ===========

SimulationControl,
    Yes,                     !- Do Zone Sizing Calculation
    No,                      !- Do System Sizing Calculation
    No,                      !- Do Plant Sizing Calculation
    Yes,                     !- Run Simulation for Sizing Periods
    Yes;                     !- Run Simulation for Weather File Run Periods


!-   ===========  ALL OBJECTS IN CLASS: BUILDING ===========

Building,
    Building 1,              !- Name
    @@orientation@@,                        !- North Axis {deg}
    ,                        !- Terrain
    ,                        !- Loads Convergence Tolerance Value {W}
    ,                        !- Temperature Convergence Tolerance Value {deltaC}
    ,                        !- Solar Distribution
    ,                        !- Maximum Number of Warmup Days
    ;                        !- Minimum Number of Warmup Days


!-   ===========  ALL OBJECTS IN CLASS: SHADOWCALCULATION ===========

ShadowCalculation,
    PolygonClipping,         !- Shading Calculation Method
    Periodic,                !- Shading Calculation Update Frequency Method
    20,                      !- Shading Calculation Update Frequency
    15000,                   !- Maximum Figures in Shadow Overlap Calculations
    SutherlandHodgman,       !- Polygon Clipping Algorithm
    512,                     !- Pixel Counting Resolution
    SimpleSkyDiffuseModeling,!- Sky Diffuse Modeling Algorithm
    No,                      !- Output External Shading Calculation Results
    No,                      !- Disable Self-Shading Within Shading Zone Groups
    No;                      !- Disable Self-Shading From Shading Zone Groups to Other Zones


!-   ===========  ALL OBJECTS IN CLASS: SURFACECONVECTIONALGORITHM:INSIDE ===========

SurfaceConvectionAlgorithm:Inside,
    TARP;                    !- Algorithm


!-   ===========  ALL OBJECTS IN CLASS: SURFACECONVECTIONALGORITHM:OUTSIDE ===========

SurfaceConvectionAlgorithm:Outside,
    DOE-2;                   !- Algorithm


!-   ===========  ALL OBJECTS IN CLASS: HEATBALANCEALGORITHM ===========

HeatBalanceAlgorithm,
    ConductionTransferFunction,  !- Algorithm
    200;                     !- Surface Temperature Upper Limit {C}


!-   ===========  ALL OBJECTS IN CLASS: TIMESTEP ===========

Timestep,
    6;                       !- Number of Timesteps per Hour


!-   ===========  ALL OBJECTS IN CLASS: SITE:LOCATION ===========

Site:Location,
    BIRMINGHAM,              !- Name
    52.45,                   !- Latitude {deg}
    -1.73,                   !- Longitude {deg}
    0,                       !- Time Zone {hr}
    99;                      !- Elevation {m}


!-   ===========  ALL OBJECTS IN CLASS: SIZINGPERIOD:DESIGNDAY ===========

SizingPeriod:DesignDay,
    BIRMINGHAM Ann Htg 99.6% Condns DB,  !- Name
    1,                       !- Month
    21,                      !- Day of Month
    WinterDesignDay,         !- Day Type
    -5.2,                    !- Maximum Dry-Bulb Temperature {C}
    0.0,                     !- Daily Dry-Bulb Temperature Range {deltaC}
    DefaultMultipliers,      !- Dry-Bulb Temperature Range Modifier Type
    ,                        !- Dry-Bulb Temperature Range Modifier Day Schedule Name
    Wetbulb,                 !- Humidity Condition Type
    -5.2,                    !- Wetbulb or DewPoint at Maximum Dry-Bulb {C}
    ,                        !- Humidity Condition Day Schedule Name
    ,                        !- Humidity Ratio at Maximum Dry-Bulb {kgWater/kgDryAir}
    ,                        !- Enthalpy at Maximum Dry-Bulb {J/kg}
    ,                        !- Daily Wet-Bulb Temperature Range {deltaC}
    100141.,                 !- Barometric Pressure {Pa}
    1.8,                     !- Wind Speed {m/s}
    70,                      !- Wind Direction {deg}
    No,                      !- Rain Indicator
    No,                      !- Snow Indicator
    No,                      !- Daylight Saving Time Indicator
    ASHRAEClearSky,          !- Solar Model Indicator
    ,                        !- Beam Solar Day Schedule Name
    ,                        !- Diffuse Solar Day Schedule Name
    ,                        !- ASHRAE Clear Sky Optical Depth for Beam Irradiance (taub) {dimensionless}
    ,                        !- ASHRAE Clear Sky Optical Depth for Diffuse Irradiance (taud) {dimensionless}
    0.00;                    !- Sky Clearness

SizingPeriod:DesignDay,
    BIRMINGHAM Ann Clg .4% Condns DB=>MWB,  !- Name
    7,                       !- Month
    21,                      !- Day of Month
    SummerDesignDay,         !- Day Type
    26.7,                    !- Maximum Dry-Bulb Temperature {C}
    9.5,                     !- Daily Dry-Bulb Temperature Range {deltaC}
    DefaultMultipliers,      !- Dry-Bulb Temperature Range Modifier Type
    ,                        !- Dry-Bulb Temperature Range Modifier Day Schedule Name
    Wetbulb,                 !- Humidity Condition Type
    17.9,                    !- Wetbulb or DewPoint at Maximum Dry-Bulb {C}
    ,                        !- Humidity Condition Day Schedule Name
    ,                        !- Humidity Ratio at Maximum Dry-Bulb {kgWater/kgDryAir}
    ,                        !- Enthalpy at Maximum Dry-Bulb {J/kg}
    ,                        !- Daily Wet-Bulb Temperature Range {deltaC}
    100141.,                 !- Barometric Pressure {Pa}
    3.8,                     !- Wind Speed {m/s}
    110,                     !- Wind Direction {deg}
    No,                      !- Rain Indicator
    No,                      !- Snow Indicator
    No,                      !- Daylight Saving Time Indicator
    ASHRAETau,               !- Solar Model Indicator
    ,                        !- Beam Solar Day Schedule Name
    ,                        !- Diffuse Solar Day Schedule Name
    0.444,                   !- ASHRAE Clear Sky Optical Depth for Beam Irradiance (taub) {dimensionless}
    1.993;                   !- ASHRAE Clear Sky Optical Depth for Diffuse Irradiance (taud) {dimensionless}


!-   ===========  ALL OBJECTS IN CLASS: RUNPERIOD ===========

RunPeriod,
    Run Period 1,            !- Name
    1,                       !- Begin Month
    1,                       !- Begin Day of Month
    2019,                    !- Begin Year
    12,                      !- End Month
    31,                      !- End Day of Month
    2019,                    !- End Year
    Tuesday,                 !- Day of Week for Start Day
    No,                      !- Use Weather File Holidays and Special Days
    No,                      !- Use Weather File Daylight Saving Period
    No,                      !- Apply Weekend Holiday Rule
    Yes,                     !- Use Weather File Rain Indicators
    Yes;                     !- Use Weather File Snow Indicators


!-   ===========  ALL OBJECTS IN CLASS: RUNPERIODCONTROL:DAYLIGHTSAVINGTIME ===========

RunPeriodControl:DaylightSavingTime,
    Last Sunday in March,    !- Start Date
    Last Sunday in October;  !- End Date


!-   ===========  ALL OBJECTS IN CLASS: SITE:GROUNDTEMPERATURE:BUILDINGSURFACE ===========

Site:GroundTemperature:BuildingSurface,
    4,                       !- January Ground Temperature {C}
    5,                       !- February Ground Temperature {C}
    7,                       !- March Ground Temperature {C}
    10,                      !- April Ground Temperature {C}
    14,                      !- May Ground Temperature {C}
    16,                      !- June Ground Temperature {C}
    18,                      !- July Ground Temperature {C}
    18,                      !- August Ground Temperature {C}
    14,                      !- September Ground Temperature {C}
    10,                      !- October Ground Temperature {C}
    5,                       !- November Ground Temperature {C}
    4;                       !- December Ground Temperature {C}


!-   ===========  ALL OBJECTS IN CLASS: SCHEDULETYPELIMITS ===========

ScheduleTypeLimits,
    ActivityLevel,           !- Name
    0,                       !- Lower Limit Value
    ,                        !- Upper Limit Value
    Continuous,              !- Numeric Type
    activitylevel;           !- Unit Type

ScheduleTypeLimits,
    Temperature,             !- Name
    ,                        !- Lower Limit Value
    ,                        !- Upper Limit Value
    Continuous,              !- Numeric Type
    temperature;             !- Unit Type

ScheduleTypeLimits,
    Fractional,              !- Name
    0,                       !- Lower Limit Value
    1,                       !- Upper Limit Value
    Continuous,              !- Numeric Type
    Dimensionless;           !- Unit Type

ScheduleTypeLimits,
    Any number;              !- Name


!-   ===========  ALL OBJECTS IN CLASS: SCHEDULE:DAY:INTERVAL ===========

Schedule:Day:Interval,
    Activity,                !- Name
    ActivityLevel,           !- Schedule Type Limits Name
    No,                      !- Interpolate to Timestep
    24:00,                   !- Time 1 {hh:mm}
    120;                     !- Value Until Time 1

Schedule:Day:Interval,
    Occupancy - weekday - bedrooms,  !- Name
    Fractional,              !- Schedule Type Limits Name
    No,                      !- Interpolate to Timestep
    08:00,                   !- Time 1 {hh:mm}
    1,                       !- Value Until Time 1
    18:00,                   !- Time 2 {hh:mm}
    0.2,                     !- Value Until Time 2
    20:00,                   !- Time 3 {hh:mm}
    0.4,                     !- Value Until Time 3
    24:00,                   !- Time 4 {hh:mm}
    1;                       !- Value Until Time 4

Schedule:Day:Interval,
    Occupancy - weekend - bedrooms,  !- Name
    Fractional,              !- Schedule Type Limits Name
    No,                      !- Interpolate to Timestep
    10:00,                   !- Time 1 {hh:mm}
    1,                       !- Value Until Time 1
    18:00,                   !- Time 2 {hh:mm}
    0.2,                     !- Value Until Time 2
    20:00,                   !- Time 3 {hh:mm}
    0.4,                     !- Value Until Time 3
    24:00,                   !- Time 4 {hh:mm}
    1;                       !- Value Until Time 4

Schedule:Day:Interval,
    Light + Equip - weekday - living room,  !- Name
    Fractional,              !- Schedule Type Limits Name
    No,                      !- Interpolate to Timestep
    07:00,                   !- Time 1 {hh:mm}
    0.1,                     !- Value Until Time 1
    08:00,                   !- Time 2 {hh:mm}
    0.8,                     !- Value Until Time 2
    09:00,                   !- Time 3 {hh:mm}
    0.4,                     !- Value Until Time 3
    17:00,                   !- Time 4 {hh:mm}
    0.1,                     !- Value Until Time 4
    18:00,                   !- Time 5 {hh:mm}
    0.4,                     !- Value Until Time 5
    23:00,                   !- Time 6 {hh:mm}
    0.8,                     !- Value Until Time 6
    24:00,                   !- Time 7 {hh:mm}
    0.1;                     !- Value Until Time 7

Schedule:Day:Interval,
    Light + Equip - weekend - living room,  !- Name
    Fractional,              !- Schedule Type Limits Name
    No,                      !- Interpolate to Timestep
    07:00,                   !- Time 1 {hh:mm}
    0.1,                     !- Value Until Time 1
    09:00,                   !- Time 2 {hh:mm}
    0.6,                     !- Value Until Time 2
    17:00,                   !- Time 3 {hh:mm}
    0.3,                     !- Value Until Time 3
    21:00,                   !- Time 4 {hh:mm}
    0.8,                     !- Value Until Time 4
    23:00,                   !- Time 5 {hh:mm}
    0.4,                     !- Value Until Time 5
    24:00,                   !- Time 6 {hh:mm}
    0.1;                     !- Value Until Time 6

Schedule:Day:Interval,
    Occupany - summer,       !- Name
    Fractional,              !- Schedule Type Limits Name
    No,                      !- Interpolate to Timestep
    08:00,                   !- Time 1 {hh:mm}
    1,                       !- Value Until Time 1
    20:00,                   !- Time 2 {hh:mm}
    0.4,                     !- Value Until Time 2
    24:00,                   !- Time 3 {hh:mm}
    1;                       !- Value Until Time 3

Schedule:Day:Interval,
    Occupancy - winter,      !- Name
    Fractional,              !- Schedule Type Limits Name
    No,                      !- Interpolate to Timestep
    09:00,                   !- Time 1 {hh:mm}
    1,                       !- Value Until Time 1
    18:00,                   !- Time 2 {hh:mm}
    0.5,                     !- Value Until Time 2
    24:00,                   !- Time 3 {hh:mm}
    1;                       !- Value Until Time 3

Schedule:Day:Interval,
    Occupancy - default,     !- Name
    Fractional,              !- Schedule Type Limits Name
    No,                      !- Interpolate to Timestep
    08:00,                   !- Time 1 {hh:mm}
    1,                       !- Value Until Time 1
    18:00,                   !- Time 2 {hh:mm}
    0.6,                     !- Value Until Time 2
    24:00,                   !- Time 3 {hh:mm}
    1;                       !- Value Until Time 3

Schedule:Day:Interval,
    Light + Equip - summer,  !- Name
    Fractional,              !- Schedule Type Limits Name
    No,                      !- Interpolate to Timestep
    07:00,                   !- Time 1 {hh:mm}
    0.1,                     !- Value Until Time 1
    08:00,                   !- Time 2 {hh:mm}
    0.6,                     !- Value Until Time 2
    09:00,                   !- Time 3 {hh:mm}
    0.2,                     !- Value Until Time 3
    17:00,                   !- Time 4 {hh:mm}
    0.1,                     !- Value Until Time 4
    18:00,                   !- Time 5 {hh:mm}
    0.6,                     !- Value Until Time 5
    23:00,                   !- Time 6 {hh:mm}
    0.5,                     !- Value Until Time 6
    24:00,                   !- Time 7 {hh:mm}
    0.1;                     !- Value Until Time 7

Schedule:Day:Interval,
    Light + Equip - winter,  !- Name
    Fractional,              !- Schedule Type Limits Name
    No,                      !- Interpolate to Timestep
    07:00,                   !- Time 1 {hh:mm}
    0.2,                     !- Value Until Time 1
    09:00,                   !- Time 2 {hh:mm}
    0.8,                     !- Value Until Time 2
    16:00,                   !- Time 3 {hh:mm}
    0.2,                     !- Value Until Time 3
    18:00,                   !- Time 4 {hh:mm}
    0.8,                     !- Value Until Time 4
    23:00,                   !- Time 5 {hh:mm}
    0.6,                     !- Value Until Time 5
    24:00,                   !- Time 6 {hh:mm}
    0.2;                     !- Value Until Time 6

Schedule:Day:Interval,
    Light + Equip - default, !- Name
    Fractional,              !- Schedule Type Limits Name
    No,                      !- Interpolate to Timestep
    07:00,                   !- Time 1 {hh:mm}
    0.1,                     !- Value Until Time 1
    09:00,                   !- Time 2 {hh:mm}
    0.5,                     !- Value Until Time 2
    17:00,                   !- Time 3 {hh:mm}
    0.2,                     !- Value Until Time 3
    19:00,                   !- Time 4 {hh:mm}
    0.6,                     !- Value Until Time 4
    23:00,                   !- Time 5 {hh:mm}
    0.4,                     !- Value Until Time 5
    24:00,                   !- Time 6 {hh:mm}
    0.1;                     !- Value Until Time 6

Schedule:Day:Interval,
    Occupancy - weekday - unoccupied,  !- Name
    Fractional,              !- Schedule Type Limits Name
    No,                      !- Interpolate to Timestep
    08:00,                   !- Time 1 {hh:mm}
    0.05,                    !- Value Until Time 1
    09:00,                   !- Time 2 {hh:mm}
    0.1,                     !- Value Until Time 2
    17:00,                   !- Time 3 {hh:mm}
    0,                       !- Value Until Time 3
    20:00,                   !- Time 4 {hh:mm}
    0.2,                     !- Value Until Time 4
    22:00,                   !- Time 5 {hh:mm}
    0.1,                     !- Value Until Time 5
    24:00,                   !- Time 6 {hh:mm}
    0.05;                    !- Value Until Time 6

Schedule:Day:Interval,
    Occupancy - weekend - unoccupied,  !- Name
    Fractional,              !- Schedule Type Limits Name
    No,                      !- Interpolate to Timestep
    09:00,                   !- Time 1 {hh:mm}
    0.05,                    !- Value Until Time 1
    12:00,                   !- Time 2 {hh:mm}
    0.1,                     !- Value Until Time 2
    14:00,                   !- Time 3 {hh:mm}
    0.2,                     !- Value Until Time 3
    17:00,                   !- Time 4 {hh:mm}
    0.1,                     !- Value Until Time 4
    20:00,                   !- Time 5 {hh:mm}
    0.2,                     !- Value Until Time 5
    22:00,                   !- Time 6 {hh:mm}
    0.1,                     !- Value Until Time 6
    24:00,                   !- Time 7 {hh:mm}
    0.05;                    !- Value Until Time 7

Schedule:Day:Interval,
    Occupancy - Kitchen,     !- Name
    Fractional,              !- Schedule Type Limits Name
    No,                      !- Interpolate to Timestep
    08:00,                   !- Time 1 {hh:mm}
    0,                       !- Value Until Time 1
    09:00,                   !- Time 2 {hh:mm}
    0.8,                     !- Value Until Time 2
    10:00,                   !- Time 3 {hh:mm}
    0.2,                     !- Value Until Time 3
    16:00,                   !- Time 4 {hh:mm}
    0.05,                    !- Value Until Time 4
    19:00,                   !- Time 5 {hh:mm}
    0.8,                     !- Value Until Time 5
    21:00,                   !- Time 6 {hh:mm}
    0.2,                     !- Value Until Time 6
    24:00,                   !- Time 7 {hh:mm}
    0;                       !- Value Until Time 7

Schedule:Day:Interval,
    Occupancy - weekday - Living room,  !- Name
    Fractional,              !- Schedule Type Limits Name
    No,                      !- Interpolate to Timestep
    08:00,                   !- Time 1 {hh:mm}
    0.05,                    !- Value Until Time 1
    09:00,                   !- Time 2 {hh:mm}
    0.8,                     !- Value Until Time 2
    16:00,                   !- Time 3 {hh:mm}
    0.05,                    !- Value Until Time 3
    19:00,                   !- Time 4 {hh:mm}
    0.2,                     !- Value Until Time 4
    22:00,                   !- Time 5 {hh:mm}
    0.8,                     !- Value Until Time 5
    24:00,                   !- Time 6 {hh:mm}
    0.05;                    !- Value Until Time 6

Schedule:Day:Interval,
    Occupancy - weekend - living room,  !- Name
    Fractional,              !- Schedule Type Limits Name
    No,                      !- Interpolate to Timestep
    08:00,                   !- Time 1 {hh:mm}
    0.05,                    !- Value Until Time 1
    10:00,                   !- Time 2 {hh:mm}
    0.8,                     !- Value Until Time 2
    16:00,                   !- Time 3 {hh:mm}
    0.6,                     !- Value Until Time 3
    18:00,                   !- Time 4 {hh:mm}
    0.4,                     !- Value Until Time 4
    19:00,                   !- Time 5 {hh:mm}
    0.2,                     !- Value Until Time 5
    22:00,                   !- Time 6 {hh:mm}
    0.6,                     !- Value Until Time 6
    24:00,                   !- Time 7 {hh:mm}
    0.05;                    !- Value Until Time 7

Schedule:Day:Interval,
    Light + Equip - weekday - bedroom,  !- Name
    Fractional,              !- Schedule Type Limits Name
    No,                      !- Interpolate to Timestep
    08:00,                   !- Time 1 {hh:mm}
    0.2,                     !- Value Until Time 1
    09:00,                   !- Time 2 {hh:mm}
    0.6,                     !- Value Until Time 2
    17:00,                   !- Time 3 {hh:mm}
    0.05,                    !- Value Until Time 3
    22:00,                   !- Time 4 {hh:mm}
    0.8,                     !- Value Until Time 4
    24:00,                   !- Time 5 {hh:mm}
    0.2;                     !- Value Until Time 5

Schedule:Day:Interval,
    Light + Equip - weekend - bedrooms,  !- Name
    Fractional,              !- Schedule Type Limits Name
    No,                      !- Interpolate to Timestep
    09:00,                   !- Time 1 {hh:mm}
    0.2,                     !- Value Until Time 1
    10:00,                   !- Time 2 {hh:mm}
    0.5,                     !- Value Until Time 2
    20:00,                   !- Time 3 {hh:mm}
    0.2,                     !- Value Until Time 3
    22:00,                   !- Time 4 {hh:mm}
    1,                       !- Value Until Time 4
    24:00,                   !- Time 5 {hh:mm}
    0.2;                     !- Value Until Time 5


!-   ===========  ALL OBJECTS IN CLASS: SCHEDULE:WEEK:DAILY ===========

Schedule:Week:Daily,
    Activity,                !- Name
    Activity,                !- Sunday Schedule:Day Name
    Activity,                !- Monday Schedule:Day Name
    Activity,                !- Tuesday Schedule:Day Name
    Activity,                !- Wednesday Schedule:Day Name
    Activity,                !- Thursday Schedule:Day Name
    Activity,                !- Friday Schedule:Day Name
    Activity,                !- Saturday Schedule:Day Name
    Activity,                !- Holiday Schedule:Day Name
    Activity,                !- SummerDesignDay Schedule:Day Name
    Activity,                !- WinterDesignDay Schedule:Day Name
    Activity,                !- CustomDay1 Schedule:Day Name
    Activity;                !- CustomDay2 Schedule:Day Name

Schedule:Week:Daily,
    Occupancy - living room, !- Name
    Occupancy - weekend - living room,  !- Sunday Schedule:Day Name
    Occupancy - weekday - Living room,  !- Monday Schedule:Day Name
    Occupancy - weekday - Living room,  !- Tuesday Schedule:Day Name
    Occupancy - weekday - Living room,  !- Wednesday Schedule:Day Name
    Occupancy - weekday - Living room,  !- Thursday Schedule:Day Name
    Occupancy - weekday - Living room,  !- Friday Schedule:Day Name
    Occupancy - weekend - living room,  !- Saturday Schedule:Day Name
    Occupancy - weekend - living room,  !- Holiday Schedule:Day Name
    Occupany - summer,       !- SummerDesignDay Schedule:Day Name
    Occupancy - winter,      !- WinterDesignDay Schedule:Day Name
    Occupancy - default,     !- CustomDay1 Schedule:Day Name
    Occupancy - default;     !- CustomDay2 Schedule:Day Name

Schedule:Week:Daily,
    Light / Equip - living room,  !- Name
    Light + Equip - weekend - living room,  !- Sunday Schedule:Day Name
    Light + Equip - weekday - living room,  !- Monday Schedule:Day Name
    Light + Equip - weekday - living room,  !- Tuesday Schedule:Day Name
    Light + Equip - weekday - living room,  !- Wednesday Schedule:Day Name
    Light + Equip - weekday - living room,  !- Thursday Schedule:Day Name
    Light + Equip - weekday - living room,  !- Friday Schedule:Day Name
    Light + Equip - weekend - living room,  !- Saturday Schedule:Day Name
    Light + Equip - weekend - living room,  !- Holiday Schedule:Day Name
    Light + Equip - summer,  !- SummerDesignDay Schedule:Day Name
    Light + Equip - winter,  !- WinterDesignDay Schedule:Day Name
    Light + Equip - default, !- CustomDay1 Schedule:Day Name
    Light + Equip - default; !- CustomDay2 Schedule:Day Name

Schedule:Week:Daily,
    Light / Equip - kitchen, !- Name
    Occupancy - Kitchen,     !- Sunday Schedule:Day Name
    Occupancy - Kitchen,     !- Monday Schedule:Day Name
    Occupancy - Kitchen,     !- Tuesday Schedule:Day Name
    Occupancy - Kitchen,     !- Wednesday Schedule:Day Name
    Occupancy - Kitchen,     !- Thursday Schedule:Day Name
    Occupancy - Kitchen,     !- Friday Schedule:Day Name
    Occupancy - Kitchen,     !- Saturday Schedule:Day Name
    Occupancy - Kitchen,     !- Holiday Schedule:Day Name
    Occupancy - Kitchen,     !- SummerDesignDay Schedule:Day Name
    Occupancy - Kitchen,     !- WinterDesignDay Schedule:Day Name
    Occupancy - Kitchen,     !- CustomDay1 Schedule:Day Name
    Occupancy - Kitchen;     !- CustomDay2 Schedule:Day Name

Schedule:Week:Daily,
    Occupancy - bedrooms,    !- Name
    Occupancy - weekend - bedrooms,  !- Sunday Schedule:Day Name
    Occupancy - weekday - bedrooms,  !- Monday Schedule:Day Name
    Occupancy - weekday - bedrooms,  !- Tuesday Schedule:Day Name
    Occupancy - weekday - bedrooms,  !- Wednesday Schedule:Day Name
    Occupancy - weekday - bedrooms,  !- Thursday Schedule:Day Name
    Occupancy - weekday - bedrooms,  !- Friday Schedule:Day Name
    Occupancy - weekend - bedrooms,  !- Saturday Schedule:Day Name
    Occupancy - weekend - bedrooms,  !- Holiday Schedule:Day Name
    Occupany - summer,       !- SummerDesignDay Schedule:Day Name
    Occupancy - winter,      !- WinterDesignDay Schedule:Day Name
    Occupancy - default,     !- CustomDay1 Schedule:Day Name
    Occupancy - default;     !- CustomDay2 Schedule:Day Name

Schedule:Week:Daily,
    Occupancy - kitchen,     !- Name
    Occupancy - Kitchen,     !- Sunday Schedule:Day Name
    Occupancy - Kitchen,     !- Monday Schedule:Day Name
    Occupancy - Kitchen,     !- Tuesday Schedule:Day Name
    Occupancy - Kitchen,     !- Wednesday Schedule:Day Name
    Occupancy - Kitchen,     !- Thursday Schedule:Day Name
    Occupancy - Kitchen,     !- Friday Schedule:Day Name
    Occupancy - Kitchen,     !- Saturday Schedule:Day Name
    Occupancy - Kitchen,     !- Holiday Schedule:Day Name
    Occupancy - Kitchen,     !- SummerDesignDay Schedule:Day Name
    Occupancy - Kitchen,     !- WinterDesignDay Schedule:Day Name
    Occupancy - Kitchen,     !- CustomDay1 Schedule:Day Name
    Occupancy - Kitchen;     !- CustomDay2 Schedule:Day Name

Schedule:Week:Daily,
    Occupancy - unoccupied,  !- Name
    Occupancy - weekend - unoccupied,  !- Sunday Schedule:Day Name
    Occupancy - weekday - unoccupied,  !- Monday Schedule:Day Name
    Occupancy - weekday - unoccupied,  !- Tuesday Schedule:Day Name
    Occupancy - weekday - unoccupied,  !- Wednesday Schedule:Day Name
    Occupancy - weekday - unoccupied,  !- Thursday Schedule:Day Name
    Occupancy - weekday - unoccupied,  !- Friday Schedule:Day Name
    Occupancy - weekend - unoccupied,  !- Saturday Schedule:Day Name
    Occupancy - weekend - unoccupied,  !- Holiday Schedule:Day Name
    Occupancy - weekday - unoccupied,  !- SummerDesignDay Schedule:Day Name
    Occupancy - weekday - unoccupied,  !- WinterDesignDay Schedule:Day Name
    Occupancy - weekday - unoccupied,  !- CustomDay1 Schedule:Day Name
    Occupancy - weekday - unoccupied;  !- CustomDay2 Schedule:Day Name

Schedule:Week:Daily,
    Light / Equip - unoccupied,  !- Name
    Occupancy - weekend - unoccupied,  !- Sunday Schedule:Day Name
    Occupancy - weekday - unoccupied,  !- Monday Schedule:Day Name
    Occupancy - weekday - unoccupied,  !- Tuesday Schedule:Day Name
    Occupancy - weekday - unoccupied,  !- Wednesday Schedule:Day Name
    Occupancy - weekday - unoccupied,  !- Thursday Schedule:Day Name
    Occupancy - weekday - unoccupied,  !- Friday Schedule:Day Name
    Occupancy - weekend - unoccupied,  !- Saturday Schedule:Day Name
    Occupancy - weekend - unoccupied,  !- Holiday Schedule:Day Name
    Occupancy - weekday - unoccupied,  !- SummerDesignDay Schedule:Day Name
    Occupancy - weekday - unoccupied,  !- WinterDesignDay Schedule:Day Name
    Occupancy - weekday - unoccupied,  !- CustomDay1 Schedule:Day Name
    Occupancy - weekday - unoccupied;  !- CustomDay2 Schedule:Day Name

Schedule:Week:Daily,
    Light / Equip - bedrooms,!- Name
    Light + Equip - weekend - bedrooms,  !- Sunday Schedule:Day Name
    Light + Equip - weekday - bedroom,  !- Monday Schedule:Day Name
    Light + Equip - weekday - bedroom,  !- Tuesday Schedule:Day Name
    Light + Equip - weekday - bedroom,  !- Wednesday Schedule:Day Name
    Light + Equip - weekday - bedroom,  !- Thursday Schedule:Day Name
    Light + Equip - weekday - bedroom,  !- Friday Schedule:Day Name
    Light + Equip - weekend - bedrooms,  !- Saturday Schedule:Day Name
    Light + Equip - weekend - bedrooms,  !- Holiday Schedule:Day Name
    Light + Equip - weekday - bedroom,  !- SummerDesignDay Schedule:Day Name
    Light + Equip - weekday - bedroom,  !- WinterDesignDay Schedule:Day Name
    Light + Equip - weekday - bedroom,  !- CustomDay1 Schedule:Day Name
    Light + Equip - weekday - bedroom;  !- CustomDay2 Schedule:Day Name


!-   ===========  ALL OBJECTS IN CLASS: SCHEDULE:YEAR ===========

Schedule:Year,
    Occ - unoccupied,        !- Name
    Fractional,              !- Schedule Type Limits Name
    Occupancy - unoccupied,  !- Schedule:Week Name 1
    1,                       !- Start Month 1
    1,                       !- Start Day 1
    12,                      !- End Month 1
    31;                      !- End Day 1

Schedule:Year,
    Occ - bedrooms,          !- Name
    Fractional,              !- Schedule Type Limits Name
    Occupancy - bedrooms,    !- Schedule:Week Name 1